<?xml version="1.0" encoding="UTF-8"?>

<vehicleDefinitions xmlns="http://www.matsim.org/files/dtd" xmlns:xsi="http://www.w3.org/2001/XMLSchema-instance" xsi:schemaLocation="http://www.matsim.org/files/dtd http://www.matsim.org/files/dtd/vehicleDefinitions_v1.0.xsd">
	<vehicleType id="metro_1_1">
		<capacity>
			<seats persons="264"/>
			<standingRoom persons="1080"/>
		</capacity>
		<length meter="7.5"/>
		<width meter="1.0"/>
		<maximumVelocity meterPerSecond="16.666666666666668"/>
		<accessTime secondsPerPerson="1.0"/>
		<egressTime secondsPerPerson="1.0"/>
		<doorOperation mode="serial"/>
		<passengerCarEquivalents pce="1.0"/>
	</vehicleType>
	<vehicleType id="metro_2_2">
		<capacity>
			<seats persons="264"/>
			<standingRoom persons="1080"/>
		</capacity>
		<length meter="7.5"/>
		<width meter="1.0"/>
		<maximumVelocity meterPerSecond="16.666666666666668"/>
		<accessTime secondsPerPerson="1.0"/>
		<egressTime secondsPerPerson="1.0"/>
		<doorOperation mode="serial"/>
		<passengerCarEquivalents pce="1.0"/>
	</vehicleType>
	<vehicleType id="metro_3_1">
		<capacity>
			<seats persons="264"/>
			<standingRoom persons="1080"/>
		</capacity>
		<length meter="7.5"/>
		<width meter="1.0"/>
		<maximumVelocity meterPerSecond="16.666666666666668"/>
		<accessTime secondsPerPerson="1.0"/>
		<egressTime secondsPerPerson="1.0"/>
		<doorOperation mode="serial"/>
		<passengerCarEquivalents pce="1.0"/>
	</vehicleType>
	<vehicleType id="metro_1_2">
		<capacity>
			<seats persons="264"/>
			<standingRoom persons="1080"/>
		</capacity>
		<length meter="7.5"/>
		<width meter="1.0"/>
		<maximumVelocity meterPerSecond="16.666666666666668"/>
		<accessTime secondsPerPerson="1.0"/>
		<egressTime secondsPerPerson="1.0"/>
		<doorOperation mode="serial"/>
		<passengerCarEquivalents pce="1.0"/>
	</vehicleType>
	<vehicleType id="metro_2_1">
		<capacity>
			<seats persons="264"/>
			<standingRoom persons="1080"/>
		</capacity>
		<length meter="7.5"/>
		<width meter="1.0"/>
		<maximumVelocity meterPerSecond="16.666666666666668"/>
		<accessTime secondsPerPerson="1.0"/>
		<egressTime secondsPerPerson="1.0"/>
		<doorOperation mode="serial"/>
		<passengerCarEquivalents pce="1.0"/>
	</vehicleType>
	<vehicleType id="metro_4_2">
		<capacity>
			<seats persons="264"/>
			<standingRoom persons="1080"/>
		</capacity>
		<length meter="7.5"/>
		<width meter="1.0"/>
		<maximumVelocity meterPerSecond="16.666666666666668"/>
		<accessTime secondsPerPerson="1.0"/>
		<egressTime secondsPerPerson="1.0"/>
		<doorOperation mode="serial"/>
		<passengerCarEquivalents pce="1.0"/>
	</vehicleType>
	<vehicleType id="metro_5_1">
		<capacity>
			<seats persons="264"/>
			<standingRoom persons="1080"/>
		</capacity>
		<length meter="7.5"/>
		<width meter="1.0"/>
		<maximumVelocity meterPerSecond="16.666666666666668"/>
		<accessTime secondsPerPerson="1.0"/>
		<egressTime secondsPerPerson="1.0"/>
		<doorOperation mode="serial"/>
		<passengerCarEquivalents pce="1.0"/>
	</vehicleType>
	<vehicleType id="metro_3_2">
		<capacity>
			<seats persons="264"/>
			<standingRoom persons="1080"/>
		</capacity>
		<length meter="7.5"/>
		<width meter="1.0"/>
		<maximumVelocity meterPerSecond="16.666666666666668"/>
		<accessTime secondsPerPerson="1.0"/>
		<egressTime secondsPerPerson="1.0"/>
		<doorOperation mode="serial"/>
		<passengerCarEquivalents pce="1.0"/>
	</vehicleType>
	<vehicleType id="metro_4_1">
		<capacity>
			<seats persons="264"/>
			<standingRoom persons="1080"/>
		</capacity>
		<length meter="7.5"/>
		<width meter="1.0"/>
		<maximumVelocity meterPerSecond="16.666666666666668"/>
		<accessTime secondsPerPerson="1.0"/>
		<egressTime secondsPerPerson="1.0"/>
		<doorOperation mode="serial"/>
		<passengerCarEquivalents pce="1.0"/>
	</vehicleType>
	<vehicleType id="metro_5_2">
		<capacity>
			<seats persons="264"/>
			<standingRoom persons="1080"/>
		</capacity>
		<length meter="7.5"/>
		<width meter="1.0"/>
		<maximumVelocity meterPerSecond="16.666666666666668"/>
		<accessTime secondsPerPerson="1.0"/>
		<egressTime secondsPerPerson="1.0"/>
		<doorOperation mode="serial"/>
		<passengerCarEquivalents pce="1.0"/>
	</vehicleType>
	<vehicle id="metro_1_1354" type="metro_1_1"/>
	<vehicle id="metro_1_1357" type="metro_1_1"/>
	<vehicle id="metro_1_1360" type="metro_1_1"/>
	<vehicle id="metro_1_1363" type="metro_1_1"/>
	<vehicle id="metro_1_1366" type="metro_1_1"/>
	<vehicle id="metro_1_1369" type="metro_1_1"/>
	<vehicle id="metro_1_1372" type="metro_1_1"/>
	<vehicle id="metro_1_1375" type="metro_1_1"/>
	<vehicle id="metro_1_1378" type="metro_1_1"/>
	<vehicle id="metro_1_1381" type="metro_1_1"/>
	<vehicle id="metro_1_1384" type="metro_1_1"/>
	<vehicle id="metro_1_1387" type="metro_1_1"/>
	<vehicle id="metro_1_1390" type="metro_1_1"/>
	<vehicle id="metro_1_1393" type="metro_1_1"/>
	<vehicle id="metro_1_1396" type="metro_1_1"/>
	<vehicle id="metro_1_1399" type="metro_1_1"/>
	<vehicle id="metro_1_1402" type="metro_1_1"/>
	<vehicle id="metro_1_1405" type="metro_1_1"/>
	<vehicle id="metro_1_1408" type="metro_1_1"/>
	<vehicle id="metro_1_1411" type="metro_1_1"/>
	<vehicle id="metro_1_1414" type="metro_1_1"/>
	<vehicle id="metro_1_1417" type="metro_1_1"/>
	<vehicle id="metro_1_1420" type="metro_1_1"/>
	<vehicle id="metro_1_1423" type="metro_1_1"/>
	<vehicle id="metro_1_1426" type="metro_1_1"/>
	<vehicle id="metro_1_1429" type="metro_1_1"/>
	<vehicle id="metro_1_1432" type="metro_1_1"/>
	<vehicle id="metro_1_1435" type="metro_1_1"/>
	<vehicle id="metro_1_1438" type="metro_1_1"/>
	<vehicle id="metro_1_1441" type="metro_1_1"/>
	<vehicle id="metro_1_1444" type="metro_1_1"/>
	<vehicle id="metro_1_1447" type="metro_1_1"/>
	<vehicle id="metro_1_1450" type="metro_1_1"/>
	<vehicle id="metro_1_1453" type="metro_1_1"/>
	<vehicle id="metro_1_1456" type="metro_1_1"/>
	<vehicle id="metro_1_1459" type="metro_1_1"/>
	<vehicle id="metro_1_1462" type="metro_1_1"/>
	<vehicle id="metro_1_1465" type="metro_1_1"/>
	<vehicle id="metro_1_1468" type="metro_1_1"/>
	<vehicle id="metro_1_1471" type="metro_1_1"/>
	<vehicle id="metro_1_1474" type="metro_1_1"/>
	<vehicle id="metro_1_1477" type="metro_1_1"/>
	<vehicle id="metro_1_1480" type="metro_1_1"/>
	<vehicle id="metro_1_1483" type="metro_1_1"/>
	<vehicle id="metro_1_1486" type="metro_1_1"/>
	<vehicle id="metro_1_1489" type="metro_1_1"/>
	<vehicle id="metro_1_1492" type="metro_1_1"/>
	<vehicle id="metro_1_1495" type="metro_1_1"/>
	<vehicle id="metro_1_1498" type="metro_1_1"/>
	<vehicle id="metro_1_1501" type="metro_1_1"/>
	<vehicle id="metro_1_1504" type="metro_1_1"/>
	<vehicle id="metro_1_1507" type="metro_1_1"/>
	<vehicle id="metro_1_1510" type="metro_1_1"/>
	<vehicle id="metro_1_1513" type="metro_1_1"/>
	<vehicle id="metro_1_1516" type="metro_1_1"/>
	<vehicle id="metro_1_1519" type="metro_1_1"/>
	<vehicle id="metro_1_1522" type="metro_1_1"/>
	<vehicle id="metro_1_1525" type="metro_1_1"/>
	<vehicle id="metro_1_1528" type="metro_1_1"/>
	<vehicle id="metro_1_1531" type="metro_1_1"/>
	<vehicle id="metro_1_1534" type="metro_1_1"/>
	<vehicle id="metro_1_1537" type="metro_1_1"/>
	<vehicle id="metro_1_1540" type="metro_1_1"/>
	<vehicle id="metro_1_1543" type="metro_1_1"/>
	<vehicle id="metro_1_1546" type="metro_1_1"/>
	<vehicle id="metro_1_1549" type="metro_1_1"/>
	<vehicle id="metro_1_1552" type="metro_1_1"/>
	<vehicle id="metro_1_1555" type="metro_1_1"/>
	<vehicle id="metro_1_1558" type="metro_1_1"/>
	<vehicle id="metro_1_1561" type="metro_1_1"/>
	<vehicle id="metro_1_1564" type="metro_1_1"/>
	<vehicle id="metro_1_1567" type="metro_1_1"/>
	<vehicle id="metro_1_1570" type="metro_1_1"/>
	<vehicle id="metro_1_1573" type="metro_1_1"/>
	<vehicle id="metro_1_1576" type="metro_1_1"/>
	<vehicle id="metro_1_1579" type="metro_1_1"/>
	<vehicle id="metro_1_1582" type="metro_1_1"/>
	<vehicle id="metro_1_1585" type="metro_1_1"/>
	<vehicle id="metro_1_1588" type="metro_1_1"/>
	<vehicle id="metro_1_1591" type="metro_1_1"/>
	<vehicle id="metro_1_1594" type="metro_1_1"/>
	<vehicle id="metro_1_1597" type="metro_1_1"/>
	<vehicle id="metro_1_1600" type="metro_1_1"/>
	<vehicle id="metro_1_1603" type="metro_1_1"/>
	<vehicle id="metro_1_1606" type="metro_1_1"/>
	<vehicle id="metro_1_1609" type="metro_1_1"/>
	<vehicle id="metro_1_1612" type="metro_1_1"/>
	<vehicle id="metro_1_1615" type="metro_1_1"/>
	<vehicle id="metro_1_1618" type="metro_1_1"/>
	<vehicle id="metro_1_1621" type="metro_1_1"/>
	<vehicle id="metro_1_1624" type="metro_1_1"/>
	<vehicle id="metro_1_1627" type="metro_1_1"/>
	<vehicle id="metro_1_1630" type="metro_1_1"/>
	<vehicle id="metro_1_1633" type="metro_1_1"/>
	<vehicle id="metro_1_1636" type="metro_1_1"/>
	<vehicle id="metro_1_1639" type="metro_1_1"/>
	<vehicle id="metro_1_1642" type="metro_1_1"/>
	<vehicle id="metro_1_1645" type="metro_1_1"/>
	<vehicle id="metro_1_1648" type="metro_1_1"/>
	<vehicle id="metro_1_1651" type="metro_1_1"/>
	<vehicle id="metro_1_1654" type="metro_1_1"/>
	<vehicle id="metro_1_1657" type="metro_1_1"/>
	<vehicle id="metro_1_1660" type="metro_1_1"/>
	<vehicle id="metro_1_1663" type="metro_1_1"/>
	<vehicle id="metro_1_1666" type="metro_1_1"/>
	<vehicle id="metro_1_1669" type="metro_1_1"/>
	<vehicle id="metro_1_1672" type="metro_1_1"/>
	<vehicle id="metro_1_1675" type="metro_1_1"/>
	<vehicle id="metro_1_1678" type="metro_1_1"/>
	<vehicle id="metro_1_1681" type="metro_1_1"/>
	<vehicle id="metro_1_1684" type="metro_1_1"/>
	<vehicle id="metro_1_1687" type="metro_1_1"/>
	<vehicle id="metro_1_1690" type="metro_1_1"/>
	<vehicle id="metro_1_1693" type="metro_1_1"/>
	<vehicle id="metro_1_1696" type="metro_1_1"/>
	<vehicle id="metro_1_1699" type="metro_1_1"/>
	<vehicle id="metro_1_1702" type="metro_1_1"/>
	<vehicle id="metro_1_1705" type="metro_1_1"/>
	<vehicle id="metro_1_1708" type="metro_1_1"/>
	<vehicle id="metro_1_1711" type="metro_1_1"/>
	<vehicle id="metro_1_1714" type="metro_1_1"/>
	<vehicle id="metro_1_1717" type="metro_1_1"/>
	<vehicle id="metro_1_1720" type="metro_1_1"/>
	<vehicle id="metro_1_1723" type="metro_1_1"/>
	<vehicle id="metro_1_1726" type="metro_1_1"/>
	<vehicle id="metro_1_1729" type="metro_1_1"/>
	<vehicle id="metro_1_1732" type="metro_1_1"/>
	<vehicle id="metro_1_1735" type="metro_1_1"/>
	<vehicle id="metro_1_1738" type="metro_1_1"/>
	<vehicle id="metro_1_1741" type="metro_1_1"/>
	<vehicle id="metro_1_1744" type="metro_1_1"/>
	<vehicle id="metro_1_1747" type="metro_1_1"/>
	<vehicle id="metro_1_1750" type="metro_1_1"/>
	<vehicle id="metro_1_1753" type="metro_1_1"/>
	<vehicle id="metro_1_1756" type="metro_1_1"/>
	<vehicle id="metro_1_1759" type="metro_1_1"/>
	<vehicle id="metro_1_1762" type="metro_1_1"/>
	<vehicle id="metro_1_1765" type="metro_1_1"/>
	<vehicle id="metro_1_1768" type="metro_1_1"/>
	<vehicle id="metro_1_1771" type="metro_1_1"/>
	<vehicle id="metro_1_1774" type="metro_1_1"/>
	<vehicle id="metro_1_1777" type="metro_1_1"/>
	<vehicle id="metro_1_1780" type="metro_1_1"/>
	<vehicle id="metro_1_1783" type="metro_1_1"/>
	<vehicle id="metro_1_1786" type="metro_1_1"/>
	<vehicle id="metro_1_1789" type="metro_1_1"/>
	<vehicle id="metro_1_1792" type="metro_1_1"/>
	<vehicle id="metro_1_1795" type="metro_1_1"/>
	<vehicle id="metro_1_1798" type="metro_1_1"/>
	<vehicle id="metro_1_1801" type="metro_1_1"/>
	<vehicle id="metro_1_1804" type="metro_1_1"/>
	<vehicle id="metro_1_1807" type="metro_1_1"/>
	<vehicle id="metro_1_1810" type="metro_1_1"/>
	<vehicle id="metro_1_1813" type="metro_1_1"/>
	<vehicle id="metro_1_1816" type="metro_1_1"/>
	<vehicle id="metro_1_1819" type="metro_1_1"/>
	<vehicle id="metro_1_1822" type="metro_1_1"/>
	<vehicle id="metro_1_1825" type="metro_1_1"/>
	<vehicle id="metro_1_1828" type="metro_1_1"/>
	<vehicle id="metro_1_1831" type="metro_1_1"/>
	<vehicle id="metro_1_1834" type="metro_1_1"/>
	<vehicle id="metro_1_1837" type="metro_1_1"/>
	<vehicle id="metro_1_1840" type="metro_1_1"/>
	<vehicle id="metro_1_1843" type="metro_1_1"/>
	<vehicle id="metro_1_1846" type="metro_1_1"/>
	<vehicle id="metro_1_1849" type="metro_1_1"/>
	<vehicle id="metro_1_1852" type="metro_1_1"/>
	<vehicle id="metro_1_1855" type="metro_1_1"/>
	<vehicle id="metro_1_1858" type="metro_1_1"/>
	<vehicle id="metro_1_1861" type="metro_1_1"/>
	<vehicle id="metro_1_1864" type="metro_1_1"/>
	<vehicle id="metro_1_1867" type="metro_1_1"/>
	<vehicle id="metro_1_1870" type="metro_1_1"/>
	<vehicle id="metro_1_1873" type="metro_1_1"/>
	<vehicle id="metro_1_1876" type="metro_1_1"/>
	<vehicle id="metro_1_1879" type="metro_1_1"/>
	<vehicle id="metro_1_1882" type="metro_1_1"/>
	<vehicle id="metro_1_1885" type="metro_1_1"/>
	<vehicle id="metro_1_1888" type="metro_1_1"/>
	<vehicle id="metro_1_1891" type="metro_1_1"/>
	<vehicle id="metro_1_1894" type="metro_1_1"/>
	<vehicle id="metro_1_1897" type="metro_1_1"/>
	<vehicle id="metro_1_1900" type="metro_1_1"/>
	<vehicle id="metro_1_1903" type="metro_1_1"/>
	<vehicle id="metro_1_1906" type="metro_1_1"/>
	<vehicle id="metro_1_1909" type="metro_1_1"/>
	<vehicle id="metro_1_1912" type="metro_1_1"/>
	<vehicle id="metro_1_1915" type="metro_1_1"/>
	<vehicle id="metro_1_1918" type="metro_1_1"/>
	<vehicle id="metro_1_1921" type="metro_1_1"/>
	<vehicle id="metro_1_1924" type="metro_1_1"/>
	<vehicle id="metro_1_1927" type="metro_1_1"/>
	<vehicle id="metro_1_1930" type="metro_1_1"/>
	<vehicle id="metro_1_1933" type="metro_1_1"/>
	<vehicle id="metro_1_1936" type="metro_1_1"/>
	<vehicle id="metro_1_1939" type="metro_1_1"/>
	<vehicle id="metro_1_1942" type="metro_1_1"/>
	<vehicle id="metro_1_1945" type="metro_1_1"/>
	<vehicle id="metro_1_1948" type="metro_1_1"/>
	<vehicle id="metro_1_1951" type="metro_1_1"/>
	<vehicle id="metro_1_1954" type="metro_1_1"/>
	<vehicle id="metro_1_1957" type="metro_1_1"/>
	<vehicle id="metro_1_1960" type="metro_1_1"/>
	<vehicle id="metro_1_1963" type="metro_1_1"/>
	<vehicle id="metro_1_1966" type="metro_1_1"/>
	<vehicle id="metro_1_1969" type="metro_1_1"/>
	<vehicle id="metro_1_1972" type="metro_1_1"/>
	<vehicle id="metro_1_1975" type="metro_1_1"/>
	<vehicle id="metro_1_1978" type="metro_1_1"/>
	<vehicle id="metro_1_1981" type="metro_1_1"/>
	<vehicle id="metro_1_1984" type="metro_1_1"/>
	<vehicle id="metro_1_1987" type="metro_1_1"/>
	<vehicle id="metro_1_1990" type="metro_1_1"/>
	<vehicle id="metro_1_1993" type="metro_1_1"/>
	<vehicle id="metro_1_1996" type="metro_1_1"/>
	<vehicle id="metro_1_1999" type="metro_1_1"/>
	<vehicle id="metro_1_11002" type="metro_1_1"/>
	<vehicle id="metro_1_11005" type="metro_1_1"/>
	<vehicle id="metro_1_11008" type="metro_1_1"/>
	<vehicle id="metro_1_11011" type="metro_1_1"/>
	<vehicle id="metro_1_11014" type="metro_1_1"/>
	<vehicle id="metro_1_11017" type="metro_1_1"/>
	<vehicle id="metro_1_11020" type="metro_1_1"/>
	<vehicle id="metro_1_11023" type="metro_1_1"/>
	<vehicle id="metro_1_11026" type="metro_1_1"/>
	<vehicle id="metro_1_11029" type="metro_1_1"/>
	<vehicle id="metro_1_11032" type="metro_1_1"/>
	<vehicle id="metro_1_11035" type="metro_1_1"/>
	<vehicle id="metro_1_11038" type="metro_1_1"/>
	<vehicle id="metro_1_11041" type="metro_1_1"/>
	<vehicle id="metro_1_11044" type="metro_1_1"/>
	<vehicle id="metro_1_11047" type="metro_1_1"/>
	<vehicle id="metro_1_11050" type="metro_1_1"/>
	<vehicle id="metro_1_11053" type="metro_1_1"/>
	<vehicle id="metro_1_11056" type="metro_1_1"/>
	<vehicle id="metro_1_11059" type="metro_1_1"/>
	<vehicle id="metro_1_11062" type="metro_1_1"/>
	<vehicle id="metro_1_11065" type="metro_1_1"/>
	<vehicle id="metro_1_11068" type="metro_1_1"/>
	<vehicle id="metro_1_11071" type="metro_1_1"/>
	<vehicle id="metro_1_11074" type="metro_1_1"/>
	<vehicle id="metro_1_11077" type="metro_1_1"/>
	<vehicle id="metro_1_11080" type="metro_1_1"/>
	<vehicle id="metro_1_11083" type="metro_1_1"/>
	<vehicle id="metro_1_11086" type="metro_1_1"/>
	<vehicle id="metro_1_11089" type="metro_1_1"/>
	<vehicle id="metro_1_11092" type="metro_1_1"/>
	<vehicle id="metro_1_11095" type="metro_1_1"/>
	<vehicle id="metro_1_11098" type="metro_1_1"/>
	<vehicle id="metro_1_11101" type="metro_1_1"/>
	<vehicle id="metro_1_11104" type="metro_1_1"/>
	<vehicle id="metro_1_11107" type="metro_1_1"/>
	<vehicle id="metro_1_11110" type="metro_1_1"/>
	<vehicle id="metro_1_11113" type="metro_1_1"/>
	<vehicle id="metro_1_11116" type="metro_1_1"/>
	<vehicle id="metro_1_11119" type="metro_1_1"/>
	<vehicle id="metro_1_11122" type="metro_1_1"/>
	<vehicle id="metro_1_11125" type="metro_1_1"/>
	<vehicle id="metro_1_11128" type="metro_1_1"/>
	<vehicle id="metro_1_11131" type="metro_1_1"/>
	<vehicle id="metro_1_11134" type="metro_1_1"/>
	<vehicle id="metro_1_11137" type="metro_1_1"/>
	<vehicle id="metro_1_11140" type="metro_1_1"/>
	<vehicle id="metro_1_11143" type="metro_1_1"/>
	<vehicle id="metro_1_11146" type="metro_1_1"/>
	<vehicle id="metro_1_11149" type="metro_1_1"/>
	<vehicle id="metro_1_11152" type="metro_1_1"/>
	<vehicle id="metro_1_11155" type="metro_1_1"/>
	<vehicle id="metro_1_11158" type="metro_1_1"/>
	<vehicle id="metro_1_11161" type="metro_1_1"/>
	<vehicle id="metro_1_11164" type="metro_1_1"/>
	<vehicle id="metro_1_11167" type="metro_1_1"/>
	<vehicle id="metro_1_11170" type="metro_1_1"/>
	<vehicle id="metro_1_11173" type="metro_1_1"/>
	<vehicle id="metro_1_11176" type="metro_1_1"/>
	<vehicle id="metro_1_11179" type="metro_1_1"/>
	<vehicle id="metro_1_11182" type="metro_1_1"/>
	<vehicle id="metro_1_11185" type="metro_1_1"/>
	<vehicle id="metro_1_11188" type="metro_1_1"/>
	<vehicle id="metro_1_11191" type="metro_1_1"/>
	<vehicle id="metro_1_11194" type="metro_1_1"/>
	<vehicle id="metro_1_11197" type="metro_1_1"/>
	<vehicle id="metro_1_11200" type="metro_1_1"/>
	<vehicle id="metro_1_11203" type="metro_1_1"/>
	<vehicle id="metro_1_11206" type="metro_1_1"/>
	<vehicle id="metro_1_11209" type="metro_1_1"/>
	<vehicle id="metro_1_11212" type="metro_1_1"/>
	<vehicle id="metro_1_11215" type="metro_1_1"/>
	<vehicle id="metro_1_11218" type="metro_1_1"/>
	<vehicle id="metro_1_11221" type="metro_1_1"/>
	<vehicle id="metro_1_11224" type="metro_1_1"/>
	<vehicle id="metro_1_11227" type="metro_1_1"/>
	<vehicle id="metro_1_11230" type="metro_1_1"/>
	<vehicle id="metro_1_11233" type="metro_1_1"/>
	<vehicle id="metro_1_11236" type="metro_1_1"/>
	<vehicle id="metro_1_11239" type="metro_1_1"/>
	<vehicle id="metro_1_11242" type="metro_1_1"/>
	<vehicle id="metro_1_11245" type="metro_1_1"/>
	<vehicle id="metro_1_11248" type="metro_1_1"/>
	<vehicle id="metro_1_11251" type="metro_1_1"/>
	<vehicle id="metro_1_11254" type="metro_1_1"/>
	<vehicle id="metro_1_11257" type="metro_1_1"/>
	<vehicle id="metro_1_11260" type="metro_1_1"/>
	<vehicle id="metro_1_11263" type="metro_1_1"/>
	<vehicle id="metro_1_11266" type="metro_1_1"/>
	<vehicle id="metro_1_11269" type="metro_1_1"/>
	<vehicle id="metro_1_11272" type="metro_1_1"/>
	<vehicle id="metro_1_11275" type="metro_1_1"/>
	<vehicle id="metro_1_11278" type="metro_1_1"/>
	<vehicle id="metro_1_11281" type="metro_1_1"/>
	<vehicle id="metro_1_11284" type="metro_1_1"/>
	<vehicle id="metro_1_11287" type="metro_1_1"/>
	<vehicle id="metro_1_11290" type="metro_1_1"/>
	<vehicle id="metro_1_11293" type="metro_1_1"/>
	<vehicle id="metro_1_11296" type="metro_1_1"/>
	<vehicle id="metro_1_11299" type="metro_1_1"/>
	<vehicle id="metro_1_11302" type="metro_1_1"/>
	<vehicle id="metro_1_11305" type="metro_1_1"/>
	<vehicle id="metro_1_11308" type="metro_1_1"/>
	<vehicle id="metro_1_11311" type="metro_1_1"/>
	<vehicle id="metro_1_11314" type="metro_1_1"/>
	<vehicle id="metro_1_11317" type="metro_1_1"/>
	<vehicle id="metro_1_11320" type="metro_1_1"/>
	<vehicle id="metro_1_11323" type="metro_1_1"/>
	<vehicle id="metro_1_11326" type="metro_1_1"/>
	<vehicle id="metro_1_11329" type="metro_1_1"/>
	<vehicle id="metro_1_11332" type="metro_1_1"/>
	<vehicle id="metro_1_11335" type="metro_1_1"/>
	<vehicle id="metro_1_11338" type="metro_1_1"/>
	<vehicle id="metro_1_11341" type="metro_1_1"/>
	<vehicle id="metro_1_11344" type="metro_1_1"/>
	<vehicle id="metro_1_11347" type="metro_1_1"/>
	<vehicle id="metro_1_11350" type="metro_1_1"/>
	<vehicle id="metro_1_11353" type="metro_1_1"/>
	<vehicle id="metro_1_11356" type="metro_1_1"/>
	<vehicle id="metro_1_11359" type="metro_1_1"/>
	<vehicle id="metro_1_11362" type="metro_1_1"/>
	<vehicle id="metro_1_11365" type="metro_1_1"/>
	<vehicle id="metro_1_11368" type="metro_1_1"/>
	<vehicle id="metro_1_11371" type="metro_1_1"/>
	<vehicle id="metro_1_11374" type="metro_1_1"/>
	<vehicle id="metro_1_11377" type="metro_1_1"/>
	<vehicle id="metro_1_11380" type="metro_1_1"/>
	<vehicle id="metro_1_11383" type="metro_1_1"/>
	<vehicle id="metro_1_11386" type="metro_1_1"/>
	<vehicle id="metro_1_11389" type="metro_1_1"/>
	<vehicle id="metro_1_11392" type="metro_1_1"/>
	<vehicle id="metro_1_11395" type="metro_1_1"/>
	<vehicle id="metro_1_11398" type="metro_1_1"/>
	<vehicle id="metro_1_11401" type="metro_1_1"/>
	<vehicle id="metro_1_11404" type="metro_1_1"/>
	<vehicle id="metro_1_11407" type="metro_1_1"/>
	<vehicle id="metro_1_11410" type="metro_1_1"/>
	<vehicle id="metro_1_11413" type="metro_1_1"/>
	<vehicle id="metro_1_11416" type="metro_1_1"/>
	<vehicle id="metro_1_11419" type="metro_1_1"/>
	<vehicle id="metro_1_11422" type="metro_1_1"/>
	<vehicle id="metro_1_11425" type="metro_1_1"/>
	<vehicle id="metro_1_11428" type="metro_1_1"/>
	<vehicle id="metro_1_11431" type="metro_1_1"/>
	<vehicle id="metro_1_11434" type="metro_1_1"/>
	<vehicle id="metro_1_11437" type="metro_1_1"/>
	<vehicle id="metro_1_11440" type="metro_1_1"/>
	<vehicle id="metro_1_11443" type="metro_1_1"/>
	<vehicle id="metro_1_11446" type="metro_1_1"/>
	<vehicle id="metro_1_11449" type="metro_1_1"/>
	<vehicle id="metro_1_11452" type="metro_1_1"/>
	<vehicle id="metro_1_11455" type="metro_1_1"/>
	<vehicle id="metro_1_11458" type="metro_1_1"/>
	<vehicle id="metro_1_11461" type="metro_1_1"/>
	<vehicle id="metro_1_11464" type="metro_1_1"/>
	<vehicle id="metro_1_11467" type="metro_1_1"/>
	<vehicle id="metro_1_11470" type="metro_1_1"/>
	<vehicle id="metro_1_11473" type="metro_1_1"/>
	<vehicle id="metro_1_11476" type="metro_1_1"/>
	<vehicle id="metro_1_11479" type="metro_1_1"/>
	<vehicle id="metro_1_11482" type="metro_1_1"/>
	<vehicle id="metro_1_11485" type="metro_1_1"/>
	<vehicle id="metro_1_11488" type="metro_1_1"/>
	<vehicle id="metro_1_11491" type="metro_1_1"/>
	<vehicle id="metro_2_2335" type="metro_2_2"/>
	<vehicle id="metro_2_2338" type="metro_2_2"/>
	<vehicle id="metro_2_2341" type="metro_2_2"/>
	<vehicle id="metro_2_2344" type="metro_2_2"/>
	<vehicle id="metro_2_2347" type="metro_2_2"/>
	<vehicle id="metro_2_2350" type="metro_2_2"/>
	<vehicle id="metro_2_2353" type="metro_2_2"/>
	<vehicle id="metro_2_2356" type="metro_2_2"/>
	<vehicle id="metro_2_2359" type="metro_2_2"/>
	<vehicle id="metro_2_2362" type="metro_2_2"/>
	<vehicle id="metro_2_2365" type="metro_2_2"/>
	<vehicle id="metro_2_2368" type="metro_2_2"/>
	<vehicle id="metro_2_2371" type="metro_2_2"/>
	<vehicle id="metro_2_2374" type="metro_2_2"/>
	<vehicle id="metro_2_2377" type="metro_2_2"/>
	<vehicle id="metro_2_2380" type="metro_2_2"/>
	<vehicle id="metro_2_2383" type="metro_2_2"/>
	<vehicle id="metro_2_2386" type="metro_2_2"/>
	<vehicle id="metro_2_2389" type="metro_2_2"/>
	<vehicle id="metro_2_2392" type="metro_2_2"/>
	<vehicle id="metro_2_2395" type="metro_2_2"/>
	<vehicle id="metro_2_2398" type="metro_2_2"/>
	<vehicle id="metro_2_2401" type="metro_2_2"/>
	<vehicle id="metro_2_2404" type="metro_2_2"/>
	<vehicle id="metro_2_2407" type="metro_2_2"/>
	<vehicle id="metro_2_2410" type="metro_2_2"/>
	<vehicle id="metro_2_2413" type="metro_2_2"/>
	<vehicle id="metro_2_2416" type="metro_2_2"/>
	<vehicle id="metro_2_2419" type="metro_2_2"/>
	<vehicle id="metro_2_2422" type="metro_2_2"/>
	<vehicle id="metro_2_2425" type="metro_2_2"/>
	<vehicle id="metro_2_2428" type="metro_2_2"/>
	<vehicle id="metro_2_2431" type="metro_2_2"/>
	<vehicle id="metro_2_2434" type="metro_2_2"/>
	<vehicle id="metro_2_2437" type="metro_2_2"/>
	<vehicle id="metro_2_2440" type="metro_2_2"/>
	<vehicle id="metro_2_2443" type="metro_2_2"/>
	<vehicle id="metro_2_2446" type="metro_2_2"/>
	<vehicle id="metro_2_2449" type="metro_2_2"/>
	<vehicle id="metro_2_2452" type="metro_2_2"/>
	<vehicle id="metro_2_2455" type="metro_2_2"/>
	<vehicle id="metro_2_2458" type="metro_2_2"/>
	<vehicle id="metro_2_2461" type="metro_2_2"/>
	<vehicle id="metro_2_2464" type="metro_2_2"/>
	<vehicle id="metro_2_2467" type="metro_2_2"/>
	<vehicle id="metro_2_2470" type="metro_2_2"/>
	<vehicle id="metro_2_2473" type="metro_2_2"/>
	<vehicle id="metro_2_2476" type="metro_2_2"/>
	<vehicle id="metro_2_2479" type="metro_2_2"/>
	<vehicle id="metro_2_2482" type="metro_2_2"/>
	<vehicle id="metro_2_2485" type="metro_2_2"/>
	<vehicle id="metro_2_2488" type="metro_2_2"/>
	<vehicle id="metro_2_2491" type="metro_2_2"/>
	<vehicle id="metro_2_2494" type="metro_2_2"/>
	<vehicle id="metro_2_2497" type="metro_2_2"/>
	<vehicle id="metro_2_2500" type="metro_2_2"/>
	<vehicle id="metro_2_2503" type="metro_2_2"/>
	<vehicle id="metro_2_2506" type="metro_2_2"/>
	<vehicle id="metro_2_2509" type="metro_2_2"/>
	<vehicle id="metro_2_2512" type="metro_2_2"/>
	<vehicle id="metro_2_2515" type="metro_2_2"/>
	<vehicle id="metro_2_2518" type="metro_2_2"/>
	<vehicle id="metro_2_2521" type="metro_2_2"/>
	<vehicle id="metro_2_2524" type="metro_2_2"/>
	<vehicle id="metro_2_2527" type="metro_2_2"/>
	<vehicle id="metro_2_2530" type="metro_2_2"/>
	<vehicle id="metro_2_2533" type="metro_2_2"/>
	<vehicle id="metro_2_2536" type="metro_2_2"/>
	<vehicle id="metro_2_2539" type="metro_2_2"/>
	<vehicle id="metro_2_2542" type="metro_2_2"/>
	<vehicle id="metro_2_2545" type="metro_2_2"/>
	<vehicle id="metro_2_2548" type="metro_2_2"/>
	<vehicle id="metro_2_2551" type="metro_2_2"/>
	<vehicle id="metro_2_2554" type="metro_2_2"/>
	<vehicle id="metro_2_2557" type="metro_2_2"/>
	<vehicle id="metro_2_2560" type="metro_2_2"/>
	<vehicle id="metro_2_2563" type="metro_2_2"/>
	<vehicle id="metro_2_2566" type="metro_2_2"/>
	<vehicle id="metro_2_2569" type="metro_2_2"/>
	<vehicle id="metro_2_2572" type="metro_2_2"/>
	<vehicle id="metro_2_2575" type="metro_2_2"/>
	<vehicle id="metro_2_2578" type="metro_2_2"/>
	<vehicle id="metro_2_2581" type="metro_2_2"/>
	<vehicle id="metro_2_2584" type="metro_2_2"/>
	<vehicle id="metro_2_2587" type="metro_2_2"/>
	<vehicle id="metro_2_2590" type="metro_2_2"/>
	<vehicle id="metro_2_2593" type="metro_2_2"/>
	<vehicle id="metro_2_2596" type="metro_2_2"/>
	<vehicle id="metro_2_2599" type="metro_2_2"/>
	<vehicle id="metro_2_2602" type="metro_2_2"/>
	<vehicle id="metro_2_2605" type="metro_2_2"/>
	<vehicle id="metro_2_2608" type="metro_2_2"/>
	<vehicle id="metro_2_2611" type="metro_2_2"/>
	<vehicle id="metro_2_2614" type="metro_2_2"/>
	<vehicle id="metro_2_2617" type="metro_2_2"/>
	<vehicle id="metro_2_2620" type="metro_2_2"/>
	<vehicle id="metro_2_2623" type="metro_2_2"/>
	<vehicle id="metro_2_2626" type="metro_2_2"/>
	<vehicle id="metro_2_2629" type="metro_2_2"/>
	<vehicle id="metro_2_2632" type="metro_2_2"/>
	<vehicle id="metro_2_2635" type="metro_2_2"/>
	<vehicle id="metro_2_2638" type="metro_2_2"/>
	<vehicle id="metro_2_2641" type="metro_2_2"/>
	<vehicle id="metro_2_2644" type="metro_2_2"/>
	<vehicle id="metro_2_2647" type="metro_2_2"/>
	<vehicle id="metro_2_2650" type="metro_2_2"/>
	<vehicle id="metro_2_2653" type="metro_2_2"/>
	<vehicle id="metro_2_2656" type="metro_2_2"/>
	<vehicle id="metro_2_2659" type="metro_2_2"/>
	<vehicle id="metro_2_2662" type="metro_2_2"/>
	<vehicle id="metro_2_2665" type="metro_2_2"/>
	<vehicle id="metro_2_2668" type="metro_2_2"/>
	<vehicle id="metro_2_2671" type="metro_2_2"/>
	<vehicle id="metro_2_2674" type="metro_2_2"/>
	<vehicle id="metro_2_2677" type="metro_2_2"/>
	<vehicle id="metro_2_2680" type="metro_2_2"/>
	<vehicle id="metro_2_2683" type="metro_2_2"/>
	<vehicle id="metro_2_2686" type="metro_2_2"/>
	<vehicle id="metro_2_2689" type="metro_2_2"/>
	<vehicle id="metro_2_2692" type="metro_2_2"/>
	<vehicle id="metro_2_2695" type="metro_2_2"/>
	<vehicle id="metro_2_2698" type="metro_2_2"/>
	<vehicle id="metro_2_2701" type="metro_2_2"/>
	<vehicle id="metro_2_2704" type="metro_2_2"/>
	<vehicle id="metro_2_2707" type="metro_2_2"/>
	<vehicle id="metro_2_2710" type="metro_2_2"/>
	<vehicle id="metro_2_2713" type="metro_2_2"/>
	<vehicle id="metro_2_2716" type="metro_2_2"/>
	<vehicle id="metro_2_2719" type="metro_2_2"/>
	<vehicle id="metro_2_2722" type="metro_2_2"/>
	<vehicle id="metro_2_2725" type="metro_2_2"/>
	<vehicle id="metro_2_2728" type="metro_2_2"/>
	<vehicle id="metro_2_2731" type="metro_2_2"/>
	<vehicle id="metro_2_2734" type="metro_2_2"/>
	<vehicle id="metro_2_2737" type="metro_2_2"/>
	<vehicle id="metro_2_2740" type="metro_2_2"/>
	<vehicle id="metro_2_2743" type="metro_2_2"/>
	<vehicle id="metro_2_2746" type="metro_2_2"/>
	<vehicle id="metro_2_2749" type="metro_2_2"/>
	<vehicle id="metro_2_2752" type="metro_2_2"/>
	<vehicle id="metro_2_2755" type="metro_2_2"/>
	<vehicle id="metro_2_2758" type="metro_2_2"/>
	<vehicle id="metro_2_2761" type="metro_2_2"/>
	<vehicle id="metro_2_2764" type="metro_2_2"/>
	<vehicle id="metro_2_2767" type="metro_2_2"/>
	<vehicle id="metro_2_2770" type="metro_2_2"/>
	<vehicle id="metro_2_2773" type="metro_2_2"/>
	<vehicle id="metro_2_2776" type="metro_2_2"/>
	<vehicle id="metro_2_2779" type="metro_2_2"/>
	<vehicle id="metro_2_2782" type="metro_2_2"/>
	<vehicle id="metro_2_2785" type="metro_2_2"/>
	<vehicle id="metro_2_2788" type="metro_2_2"/>
	<vehicle id="metro_2_2791" type="metro_2_2"/>
	<vehicle id="metro_2_2794" type="metro_2_2"/>
	<vehicle id="metro_2_2797" type="metro_2_2"/>
	<vehicle id="metro_2_2800" type="metro_2_2"/>
	<vehicle id="metro_2_2803" type="metro_2_2"/>
	<vehicle id="metro_2_2806" type="metro_2_2"/>
	<vehicle id="metro_2_2809" type="metro_2_2"/>
	<vehicle id="metro_2_2812" type="metro_2_2"/>
	<vehicle id="metro_2_2815" type="metro_2_2"/>
	<vehicle id="metro_2_2818" type="metro_2_2"/>
	<vehicle id="metro_2_2821" type="metro_2_2"/>
	<vehicle id="metro_2_2824" type="metro_2_2"/>
	<vehicle id="metro_2_2827" type="metro_2_2"/>
	<vehicle id="metro_2_2830" type="metro_2_2"/>