<?xml version="1.0" encoding="UTF-8"?>
<!DOCTYPE transitSchedule SYSTEM "http://www.matsim.org/files/dtd/transitSchedule_v2.dtd">

<transitSchedule>
	<attributes>
		<attribute name="coordinateReferenceSystem" class="java.lang.String" >GK4</attribute>
	</attributes>

	<transitStops>
		<stopFacility id="metro_1_10" x="691673.6005446872" y="6662002.3335381355" linkRefId="-155392_0" isBlocking="false"/>
		<stopFacility id="metro_1_11" x="690346.653831498" y="6660135.166685114" linkRefId="-154926_0" isBlocking="false"/>
		<stopFacility id="metro_1_110" x="687103.2038979745" y="6648089.416928733" linkRefId="-154854_0" isBlocking="false"/>
		<stopFacility id="metro_1_111" x="686234.2230155554" y="6647313.110016733" linkRefId="-154846_0" isBlocking="false"/>
		<stopFacility id="metro_1_112" x="685447.3750197393" y="6646615.741264663" linkRefId="-155354_0" isBlocking="false"/>
		<stopFacility id="metro_1_113" x="684569.4451444023" y="6645730.487599126" linkRefId="-155344_0" isBlocking="false"/>
		<stopFacility id="metro_1_114" x="683149.489630305" y="6644908.768571835" linkRefId="-155336_0" isBlocking="false"/>
		<stopFacility id="metro_1_115" x="682519.3174019381" y="6642444.433513911" linkRefId="-155328_0" isBlocking="false"/>
		<stopFacility id="metro_1_116" x="683070.284810758" y="6639294.304880563" linkRefId="-155318_0" isBlocking="false"/>
		<stopFacility id="metro_1_117" x="682211.9687367157" y="6638284.315013832" linkRefId="-155322_0" isBlocking="false"/>
		<stopFacility id="metro_1_12" x="689234.7300658445" y="6657690.567384625" linkRefId="-154918_0" isBlocking="false"/>
		<stopFacility id="metro_1_13" x="687967.5801275064" y="6657229.061172929" linkRefId="-154914_0" isBlocking="false"/>
		<stopFacility id="metro_1_14" x="687746.5646676654" y="6656345.395092693" linkRefId="-154902_0" isBlocking="false"/>
		<stopFacility id="metro_1_15" x="686587.8160672924" y="6654496.972589221" linkRefId="-154894_0" isBlocking="false"/>
		<stopFacility id="metro_1_16" x="686822.5146185677" y="6652868.895210415" linkRefId="-154890_0" isBlocking="false"/>
		<stopFacility id="metro_1_17" x="687360.1188702872" y="6651315.624631368" linkRefId="-154882_0" isBlocking="false"/>
		<stopFacility id="metro_1_18" x="687710.5386285819" y="6649842.119507942" linkRefId="-154874_0" isBlocking="false"/>
		<stopFacility id="metro_1_19" x="687754.691912648" y="6648542.594688097" linkRefId="-154866_0" isBlocking="false"/>
		<stopFacility id="metro_1_20" x="682211.9711438756" y="6638280.210284693" linkRefId="-155304_0" isBlocking="false"/>
		<stopFacility id="metro_1_21" x="683082.2110948646" y="6639294.971896564" linkRefId="-155308_0" isBlocking="false"/>
		<stopFacility id="metro_1_210" x="687735.7347570227" y="6649849.580507897" linkRefId="-154872_0" isBlocking="false"/>
		<stopFacility id="metro_1_211" x="687374.0573591723" y="6651320.047012433" linkRefId="-154880_0" isBlocking="false"/>
		<stopFacility id="metro_1_212" x="686835.4999269214" y="6652872.592738636" linkRefId="-154888_0" isBlocking="false"/>
		<stopFacility id="metro_1_213" x="686602.4308882419" y="6654490.282465961" linkRefId="-154900_0" isBlocking="false"/>
		<stopFacility id="metro_1_214" x="687762.8784950052" y="6656341.245309324" linkRefId="-154908_0" isBlocking="false"/>
		<stopFacility id="metro_1_215" x="687972.8081043856" y="6657214.127761655" linkRefId="-154912_0" isBlocking="false"/>
		<stopFacility id="metro_1_216" x="689239.8035839759" y="6657675.582875513" linkRefId="-154924_0" isBlocking="false"/>
		<stopFacility id="metro_1_217" x="690360.6024727059" y="6660128.112053094" linkRefId="-154932_0" isBlocking="false"/>
		<stopFacility id="metro_1_218" x="691687.5544820814" y="6661999.669410372" linkRefId="-154936_0" isBlocking="false"/>
		<stopFacility id="metro_1_22" x="682589.9637034376" y="6641092.470393257" linkRefId="-155312_0" isBlocking="false"/>
		<stopFacility id="metro_1_23" x="682526.2231692717" y="6642443.8991830945" linkRefId="-155330_0" isBlocking="false"/>
		<stopFacility id="metro_1_24" x="683153.1672383931" y="6644907.829559195" linkRefId="-155334_0" isBlocking="false"/>
		<stopFacility id="metro_1_25" x="684579.2841443957" y="6645715.759686213" linkRefId="-155342_0" isBlocking="false"/>
		<stopFacility id="metro_1_26" x="685496.067255557" y="6646612.076084393" linkRefId="-155352_0" isBlocking="false"/>
		<stopFacility id="metro_1_27" x="686241.4629847365" y="6647303.152638329" linkRefId="-154852_0" isBlocking="false"/>
		<stopFacility id="metro_1_28" x="687109.660417066" y="6648077.601415129" linkRefId="-154860_0" isBlocking="false"/>
		<stopFacility id="metro_1_29" x="687783.7849037028" y="6648538.155691442" linkRefId="-154864_0" isBlocking="false"/>
		<stopFacility id="metro_2_10" x="685537.621713445" y="6663542.625500198" linkRefId="-155082_0" isBlocking="false"/>
		<stopFacility id="metro_2_11" x="685514.8354874835" y="6661688.7038080655" linkRefId="-155078_0" isBlocking="false"/>
		<stopFacility id="metro_2_110" x="685455.695760976" y="6646589.436069395" linkRefId="-155360_0" isBlocking="false"/>
		<stopFacility id="metro_2_111" x="685514.543023365" y="6645509.703661102" linkRefId="-154990_0" isBlocking="false"/>
		<stopFacility id="metro_2_112" x="685601.9103811898" y="6644054.35242138" linkRefId="-154974_0" isBlocking="false"/>
		<stopFacility id="metro_2_113" x="685711.8829445064" y="6642695.697093468" linkRefId="-154968_0" isBlocking="false"/>
		<stopFacility id="metro_2_114" x="685971.4458180391" y="6641206.939983808" linkRefId="-154960_0" isBlocking="false"/>
		<stopFacility id="metro_2_115" x="686073.8446972757" y="6639513.76525873" linkRefId="-154950_0" isBlocking="false"/>
		<stopFacility id="metro_2_116" x="687721.5754975497" y="6637583.16654987" linkRefId="-154944_0" isBlocking="false"/>
		<stopFacility id="metro_2_117" x="689151.7786591814" y="6637371.200928325" linkRefId="-155130_0" isBlocking="false"/>
		<stopFacility id="metro_2_12" x="685007.6800492539" y="6660169.866512243" linkRefId="-155070_0" isBlocking="false"/>
		<stopFacility id="metro_2_13" x="684842.0672184012" y="6657950.862829054" linkRefId="-155058_0" isBlocking="false"/>
		<stopFacility id="metro_2_14" x="683805.1489242916" y="6656342.20216275" linkRefId="-155054_0" isBlocking="false"/>
		<stopFacility id="metro_2_15" x="684167.0215394123" y="6654427.893287407" linkRefId="-155042_0" isBlocking="false"/>
		<stopFacility id="metro_2_16" x="684886.9716077889" y="6652215.575233305" linkRefId="-155038_0" isBlocking="false"/>
		<stopFacility id="metro_2_17" x="685314.2120302294" y="6651124.246100173" linkRefId="-155030_0" isBlocking="false"/>
		<stopFacility id="metro_2_18" x="685927.7536940692" y="6648740.68437065" linkRefId="-155022_0" isBlocking="false"/>
		<stopFacility id="metro_2_19" x="685517.8303716311" y="6647795.724785585" linkRefId="-154998_0" isBlocking="false"/>
		<stopFacility id="metro_2_20" x="689170.5721065438" y="6637314.070339499" linkRefId="-155134_0" isBlocking="false"/>
		<stopFacility id="metro_2_21" x="687722.2844665588" y="6637585.801670763" linkRefId="-154942_0" isBlocking="false"/>
		<stopFacility id="metro_2_210" x="685322.0822860037" y="6651124.551939357" linkRefId="-155028_0" isBlocking="false"/>
		<stopFacility id="metro_2_211" x="684896.9773845971" y="6652225.062222547" linkRefId="-155036_0" isBlocking="false"/>
		<stopFacility id="metro_2_212" x="684171.9336601455" y="6654425.326890158" linkRefId="-155048_0" isBlocking="false"/>
		<stopFacility id="metro_2_213" x="683812.0728538285" y="6656343.724440075" linkRefId="-155052_0" isBlocking="false"/>
		<stopFacility id="metro_2_214" x="684844.6390254523" y="6657948.367229022" linkRefId="-155064_0" isBlocking="false"/>
		<stopFacility id="metro_2_215" x="685012.8379267957" y="6660169.4007392805" linkRefId="-155068_0" isBlocking="false"/>
		<stopFacility id="metro_2_216" x="685521.1768346507" y="6661687.852352038" linkRefId="-155076_0" isBlocking="false"/>
		<stopFacility id="metro_2_217" x="685539.7432146672" y="6663547.139648069" linkRefId="-155084_0" isBlocking="false"/>
		<stopFacility id="metro_2_22" x="686099.2423618679" y="6639520.04831182" linkRefId="-154954_0" isBlocking="false"/>
		<stopFacility id="metro_2_23" x="685975.0692945519" y="6641207.9529398605" linkRefId="-154958_0" isBlocking="false"/>
		<stopFacility id="metro_2_24" x="685730.3593753861" y="6642697.482747303" linkRefId="-154966_0" isBlocking="false"/>
		<stopFacility id="metro_2_25" x="685623.0092043378" y="6644054.752580266" linkRefId="-154988_0" isBlocking="false"/>
		<stopFacility id="metro_2_26" x="685538.3640596776" y="6645512.956901006" linkRefId="-154996_0" isBlocking="false"/>
		<stopFacility id="metro_2_27" x="685502.052652818" y="6646580.527972389" linkRefId="-155364_0" isBlocking="false"/>
		<stopFacility id="metro_2_28" x="685532.9402528345" y="6647791.577090605" linkRefId="-155004_0" isBlocking="false"/>
		<stopFacility id="metro_2_29" x="685933.4620416735" y="6648739.549187709" linkRefId="-155020_0" isBlocking="false"/>
		<stopFacility id="metro_3_10" x="680837.6186078908" y="6650133.75480381" linkRefId="-155086_0" isBlocking="false"/>
		<stopFacility id="metro_3_11" x="682894.595057881" y="6649603.387307484" linkRefId="-155092_0" isBlocking="false"/>
		<stopFacility id="metro_3_12" x="686120.9438847709" y="6648757.274510302" linkRefId="-155106_0" isBlocking="false"/>
		<stopFacility id="metro_3_13" x="687622.8544896056" y="6648459.919691109" linkRefId="-155114_0" isBlocking="false"/>
		<stopFacility id="metro_3_14" x="689203.610519872" y="6647808.15928931" linkRefId="-155118_0" isBlocking="false"/>
		<stopFacility id="metro_3_15" x="691493.4753340578" y="6644867.154582782" linkRefId="-155132_0" isBlocking="false"/>
		<stopFacility id="metro_3_16" x="692566.9366023041" y="6642820.905511538" linkRefId="-155138_0" isBlocking="false"/>
		<stopFacility id="metro_3_17" x="694284.2870698204" y="6641448.4251773" linkRefId="-155152_0" isBlocking="false"/>
		<stopFacility id="metro_3_18" x="693681.5577572965" y="6639665.843144416" linkRefId="-155158_0" isBlocking="false"/>
		<stopFacility id="metro_3_19" x="696166.749724596" y="6637753.745085369" linkRefId="-155396_0" isBlocking="false"/>
		<stopFacility id="metro_3_20" x="696169.788925762" y="6637759.803521569" linkRefId="-154980_0" isBlocking="false"/>
		<stopFacility id="metro_3_21" x="693687.3085898082" y="6639666.327700442" linkRefId="-155154_0" isBlocking="false"/>
		<stopFacility id="metro_3_22" x="694299.4470800572" y="6641454.33796396" linkRefId="-155146_0" isBlocking="false"/>
		<stopFacility id="metro_3_23" x="692575.6587896892" y="6642831.474520004" linkRefId="-155142_0" isBlocking="false"/>
		<stopFacility id="metro_3_24" x="691495.7265710644" y="6644868.3931278065" linkRefId="-155124_0" isBlocking="false"/>
		<stopFacility id="metro_3_25" x="689204.4702894908" y="6647809.196195863" linkRefId="-155120_0" isBlocking="false"/>
		<stopFacility id="metro_3_26" x="687626.6336931397" y="6648473.625558896" linkRefId="-155108_0" isBlocking="false"/>
		<stopFacility id="metro_3_27" x="686122.3682057052" y="6648762.136056855" linkRefId="-155100_0" isBlocking="false"/>
		<stopFacility id="metro_3_28" x="682903.4046515233" y="6649628.236205677" linkRefId="-155094_0" isBlocking="false"/>
		<stopFacility id="metro_3_29" x="680845.6306298703" y="6650149.646334228" linkRefId="-155088_0" isBlocking="false"/>
		<stopFacility id="metro_4_10" x="685399.9612360613" y="6647821.346698675" linkRefId="-155016_0" isBlocking="false"/>
		<stopFacility id="metro_4_11" x="686972.1280546901" y="6648088.022156676" linkRefId="-155216_0" isBlocking="false"/>
		<stopFacility id="metro_4_12" x="687565.9124337481" y="6647334.08665077" linkRefId="-155206_0" isBlocking="false"/>
		<stopFacility id="metro_4_13" x="689095.586877581" y="6647726.4348242525" linkRefId="-155194_0" isBlocking="false"/>
		<stopFacility id="metro_4_14" x="690843.7251933826" y="6648489.275446495" linkRefId="-155186_0" isBlocking="false"/>
		<stopFacility id="metro_4_15" x="692346.7433405754" y="6648784.909471419" linkRefId="-155182_0" isBlocking="false"/>
		<stopFacility id="metro_4_16" x="693678.1282391471" y="6647745.68145445" linkRefId="-155174_0" isBlocking="false"/>
		<stopFacility id="metro_4_17" x="694672.9003623612" y="6646405.620787754" linkRefId="-155166_0" isBlocking="false"/>
		<stopFacility id="metro_4_20" x="694687.0520394489" y="6646414.473904317" linkRefId="-155168_0" isBlocking="false"/>
		<stopFacility id="metro_4_21" x="693694.0234665063" y="6647752.221209787" linkRefId="-155172_0" isBlocking="false"/>
		<stopFacility id="metro_4_22" x="692350.8932240779" y="6648792.639620116" linkRefId="-155180_0" isBlocking="false"/>
		<stopFacility id="metro_4_23" x="690838.6033888871" y="6648499.269278915" linkRefId="-155192_0" isBlocking="false"/>
		<stopFacility id="metro_4_24" x="689093.2969765011" y="6647733.091637025" linkRefId="-155200_0" isBlocking="false"/>
		<stopFacility id="metro_4_25" x="687568.3092335339" y="6647339.998106311" linkRefId="-155204_0" isBlocking="false"/>
		<stopFacility id="metro_4_26" x="686980.1042622998" y="6648097.833755843" linkRefId="-155210_0" isBlocking="false"/>
		<stopFacility id="metro_4_27" x="685421.0609396743" y="6647830.827474635" linkRefId="-155014_0" isBlocking="false"/>
		<stopFacility id="metro_5_10" x="681582.0602690929" y="6656926.363882113" linkRefId="-155282_0" isBlocking="false"/>
		<stopFacility id="metro_5_11" x="681588.1254656859" y="6654612.742609809" linkRefId="-155294_0" isBlocking="false"/>
		<stopFacility id="metro_5_110" x="688597.5224670972" y="6643103.160647511" linkRefId="-155222_0" isBlocking="false"/>
		<stopFacility id="metro_5_111" x="689319.4811321159" y="6641610.2474626005" linkRefId="-155220_0" isBlocking="false"/>
		<stopFacility id="metro_5_12" x="681921.3571216883" y="6652590.892254444" linkRefId="-155284_0" isBlocking="false"/>
		<stopFacility id="metro_5_13" x="683787.7401077307" y="6651592.963846709" linkRefId="-155274_0" isBlocking="false"/>
		<stopFacility id="metro_5_14" x="683763.3652168346" y="6650560.095086016" linkRefId="-155270_0" isBlocking="false"/>
		<stopFacility id="metro_5_15" x="685245.5904976123" y="6648880.030761464" linkRefId="-155260_0" isBlocking="false"/>
		<stopFacility id="metro_5_16" x="685515.5783774443" y="6647779.553219562" linkRefId="-155010_0" isBlocking="false"/>
		<stopFacility id="metro_5_17" x="686262.7133842203" y="6647394.772846225" linkRefId="-155254_0" isBlocking="false"/>
		<stopFacility id="metro_5_18" x="687272.4017497583" y="6646572.317588549" linkRefId="-155238_0" isBlocking="false"/>
		<stopFacility id="metro_5_19" x="687920.1026238168" y="6644391.546792757" linkRefId="-155234_0" isBlocking="false"/>
		<stopFacility id="metro_5_20" x="689329.5369417008" y="6641619.937317889" linkRefId="-155218_0" isBlocking="false"/>
		<stopFacility id="metro_5_21" x="688606.0301601787" y="6643108.311484008" linkRefId="-155228_0" isBlocking="false"/>
		<stopFacility id="metro_5_210" x="681597.9319270916" y="6654613.636645662" linkRefId="-155292_0" isBlocking="false"/>
		<stopFacility id="metro_5_211" x="681603.9102158742" y="6656939.337201981" linkRefId="-155298_0" isBlocking="false"/>
		<stopFacility id="metro_5_22" x="687937.0825354739" y="6644406.834231991" linkRefId="-155232_0" isBlocking="false"/>
		<stopFacility id="metro_5_23" x="687286.095685306" y="6646573.747939201" linkRefId="-155244_0" isBlocking="false"/>
		<stopFacility id="metro_5_24" x="686260.4549926575" y="6647409.8676541215" linkRefId="-155248_0" isBlocking="false"/>
		<stopFacility id="metro_5_25" x="685527.4391970973" y="6647784.3535421435" linkRefId="-155008_0" isBlocking="false"/>
		<stopFacility id="metro_5_26" x="685247.3445695433" y="6648882.508794306" linkRefId="-155258_0" isBlocking="false"/>
		<stopFacility id="metro_5_27" x="683766.7149032226" y="6650558.536117356" linkRefId="-155266_0" isBlocking="false"/>
		<stopFacility id="metro_5_28" x="683794.4329544666" y="6651593.507721014" linkRefId="-155280_0" isBlocking="false"/>
		<stopFacility id="metro_5_29" x="681933.6048621628" y="6652590.971886713" linkRefId="-155286_0" isBlocking="false"/>
		<stopFacility id="para_317944867_0" x="687621.5431244014" y="6641122.205902108" linkRefId="317944867_0" isBlocking="false"/>
		<stopFacility id="para_317944867_0_r" x="687741.1140573078" y="6641160.893162482" linkRefId="317944867_0_r" isBlocking="false"/>
	</transitStops>
	<transitLine id="metro_1_1">
		<transitRoute id="metro_1_1">
			<transportMode>metro</transportMode>
			<routeProfile>
				<stop refId="metro_1_10" arrivalOffset="00:00:00" departureOffset="00:00:30" awaitDeparture="true"/>
				<stop refId="metro_1_11" arrivalOffset="00:02:44" departureOffset="00:03:14" awaitDeparture="true"/>
				<stop refId="metro_1_12" arrivalOffset="00:05:58" departureOffset="00:06:28" awaitDeparture="true"/>
				<stop refId="metro_1_13" arrivalOffset="00:07:35" departureOffset="00:08:05" awaitDeparture="true"/>
				<stop refId="metro_1_14" arrivalOffset="00:08:40" departureOffset="00:09:10" awaitDeparture="true"/>
				<stop refId="metro_1_15" arrivalOffset="00:11:18" departureOffset="00:11:48" awaitDeparture="true"/>
				<stop refId="metro_1_16" arrivalOffset="00:13:16" departureOffset="00:13:46" awaitDeparture="true"/>
				<stop refId="metro_1_17" arrivalOffset="00:15:14" departureOffset="00:15:44" awaitDeparture="true"/>
				<stop refId="metro_1_18" arrivalOffset="00:17:03" departureOffset="00:17:33" awaitDeparture="true"/>
				<stop refId="metro_1_19" arrivalOffset="00:18:37" departureOffset="00:19:07" awaitDeparture="true"/>
				<stop refId="metro_1_110" arrivalOffset="00:19:34" departureOffset="00:20:04" awaitDeparture="true"/>
				<stop refId="metro_1_111" arrivalOffset="00:20:58" departureOffset="00:21:28" awaitDeparture="true"/>
				<stop refId="metro_1_112" arrivalOffset="00:22:14" departureOffset="00:22:44" awaitDeparture="true"/>
				<stop refId="metro_1_113" arrivalOffset="00:23:44" departureOffset="00:24:14" awaitDeparture="true"/>
				<stop refId="metro_1_114" arrivalOffset="00:25:42" departureOffset="00:26:12" awaitDeparture="true"/>
				<stop refId="metro_1_115" arrivalOffset="00:28:45" departureOffset="00:29:15" awaitDeparture="true"/>
				<stop refId="metro_1_116" arrivalOffset="00:32:35" departureOffset="00:33:05" awaitDeparture="true"/>
				<stop refId="metro_1_117" arrivalOffset="00:34:10" departureOffset="00:34:40" awaitDeparture="true"/>
			</routeProfile>
			<route>
				<link refId="-155392_0"/>
				<link refId="-155348_0"/>
				<link refId="-154926_0"/>
				<link refId="-154928_0"/>
				<link refId="-154918_0"/>
				<link refId="-154920_0"/>
				<link refId="-154914_0"/>
				<link refId="-154916_0"/>
				<link refId="-154902_0"/>
				<link refId="-154904_0"/>
				<link refId="-154894_0"/>
				<link refId="-154896_0"/>
				<link refId="-154890_0"/>
				<link refId="-154892_0"/>
				<link refId="-154882_0"/>
				<link refId="-154884_0"/>
				<link refId="-154874_0"/>
				<link refId="-154876_0"/>
				<link refId="-154866_0"/>
				<link refId="-154868_0"/>
				<link refId="-154854_0"/>
				<link refId="-154856_0"/>
				<link refId="-154846_0"/>
				<link refId="-154848_0"/>
				<link refId="-155354_0"/>
				<link refId="-155356_0"/>
				<link refId="-155344_0"/>
				<link refId="-155346_0"/>
				<link refId="-155336_0"/>
				<link refId="-155338_0"/>
				<link refId="-155328_0"/>
				<link refId="-155314_0"/>
				<link refId="-155316_0"/>
				<link refId="-155318_0"/>
				<link refId="-155320_0"/>
				<link refId="-155322_0"/>
			</route>
			<departures>
				<departure id="metro_1_11002" departureTime="16:42:00" vehicleRefId="metro_1_11002"/>
				<departure id="metro_1_11005" departureTime="16:45:00" vehicleRefId="metro_1_11005"/>
				<departure id="metro_1_11008" departureTime="16:48:00" vehicleRefId="metro_1_11008"/>
				<departure id="metro_1_11011" departureTime="16:51:00" vehicleRefId="metro_1_11011"/>
				<departure id="metro_1_11014" departureTime="16:54:00" vehicleRefId="metro_1_11014"/>
				<departure id="metro_1_11017" departureTime="16:57:00" vehicleRefId="metro_1_11017"/>
				<departure id="metro_1_11020" departureTime="17:00:00" vehicleRefId="metro_1_11020"/>
				<departure id="metro_1_11023" departureTime="17:03:00" vehicleRefId="metro_1_11023"/>
				<departure id="metro_1_11026" departureTime="17:06:00" vehicleRefId="metro_1_11026"/>
				<departure id="metro_1_11029" departureTime="17:09:00" vehicleRefId="metro_1_11029"/>
				<departure id="metro_1_11032" departureTime="17:12:00" vehicleRefId="metro_1_11032"/>
				<departure id="metro_1_11035" departureTime="17:15:00" vehicleRefId="metro_1_11035"/>
				<departure id="metro_1_11038" departureTime="17:18:00" vehicleRefId="metro_1_11038"/>
				<departure id="metro_1_11041" departureTime="17:21:00" vehicleRefId="metro_1_11041"/>
				<departure id="metro_1_11044" departureTime="17:24:00" vehicleRefId="metro_1_11044"/>
				<departure id="metro_1_11047" departureTime="17:27:00" vehicleRefId="metro_1_11047"/>
				<departure id="metro_1_11050" departureTime="17:30:00" vehicleRefId="metro_1_11050"/>
				<departure id="metro_1_11053" departureTime="17:33:00" vehicleRefId="metro_1_11053"/>
				<departure id="metro_1_11056" departureTime="17:36:00" vehicleRefId="metro_1_11056"/>
				<departure id="metro_1_11059" departureTime="17:39:00" vehicleRefId="metro_1_11059"/>
				<departure id="metro_1_11062" departureTime="17:42:00" vehicleRefId="metro_1_11062"/>
				<departure id="metro_1_11065" departureTime="17:45:00" vehicleRefId="metro_1_11065"/>
				<departure id="metro_1_11068" departureTime="17:48:00" vehicleRefId="metro_1_11068"/>
				<departure id="metro_1_11071" departureTime="17:51:00" vehicleRefId="metro_1_11071"/>
				<departure id="metro_1_11074" departureTime="17:54:00" vehicleRefId="metro_1_11074"/>
				<departure id="metro_1_11077" departureTime="17:57:00" vehicleRefId="metro_1_11077"/>
				<departure id="metro_1_11080" departureTime="18:00:00" vehicleRefId="metro_1_11080"/>
				<departure id="metro_1_11083" departureTime="18:03:00" vehicleRefId="metro_1_11083"/>
				<departure id="metro_1_11086" departureTime="18:06:00" vehicleRefId="metro_1_11086"/>
				<departure id="metro_1_11089" departureTime="18:09:00" vehicleRefId="metro_1_11089"/>
				<departure id="metro_1_11092" departureTime="18:12:00" vehicleRefId="metro_1_11092"/>
				<departure id="metro_1_11095" departureTime="18:15:00" vehicleRefId="metro_1_11095"/>
				<departure id="metro_1_11098" departureTime="18:18:00" vehicleRefId="metro_1_11098"/>
				<departure id="metro_1_11101" departureTime="18:21:00" vehicleRefId="metro_1_11101"/>
				<departure id="metro_1_11104" departureTime="18:24:00" vehicleRefId="metro_1_11104"/>
				<departure id="metro_1_11107" departureTime="18:27:00" vehicleRefId="metro_1_11107"/>
				<departure id="metro_1_11110" departureTime="18:30:00" vehicleRefId="metro_1_11110"/>
				<departure id="metro_1_11113" departureTime="18:33:00" vehicleRefId="metro_1_11113"/>
				<departure id="metro_1_11116" departureTime="18:36:00" vehicleRefId="metro_1_11116"/>
				<departure id="metro_1_11119" departureTime="18:39:00" vehicleRefId="metro_1_11119"/>
				<departure id="metro_1_11122" departureTime="18:42:00" vehicleRefId="metro_1_11122"/>
				<departure id="metro_1_11125" departureTime="18:45:00" vehicleRefId="metro_1_11125"/>
				<departure id="metro_1_11128" departureTime="18:48:00" vehicleRefId="metro_1_11128"/>
				<departure id="metro_1_11131" departureTime="18:51:00" vehicleRefId="metro_1_11131"/>
				<departure id="metro_1_11134" departureTime="18:54:00" vehicleRefId="metro_1_11134"/>
				<departure id="metro_1_11137" departureTime="18:57:00" vehicleRefId="metro_1_11137"/>
				<departure id="metro_1_11140" departureTime="19:00:00" vehicleRefId="metro_1_11140"/>
				<departure id="metro_1_11143" departureTime="19:03:00" vehicleRefId="metro_1_11143"/>
				<departure id="metro_1_11146" departureTime="19:06:00" vehicleRefId="metro_1_11146"/>
				<departure id="metro_1_11149" departureTime="19:09:00" vehicleRefId="metro_1_11149"/>
				<departure id="metro_1_11152" departureTime="19:12:00" vehicleRefId="metro_1_11152"/>
				<departure id="metro_1_11155" departureTime="19:15:00" vehicleRefId="metro_1_11155"/>
				<departure id="metro_1_11158" departureTime="19:18:00" vehicleRefId="metro_1_11158"/>
				<departure id="metro_1_11161" departureTime="19:21:00" vehicleRefId="metro_1_11161"/>
				<departure id="metro_1_11164" departureTime="19:24:00" vehicleRefId="metro_1_11164"/>
				<departure id="metro_1_11167" departureTime="19:27:00" vehicleRefId="metro_1_11167"/>
				<departure id="metro_1_11170" departureTime="19:30:00" vehicleRefId="metro_1_11170"/>
				<departure id="metro_1_11173" departureTime="19:33:00" vehicleRefId="metro_1_11173"/>
				<departure id="metro_1_11176" departureTime="19:36:00" vehicleRefId="metro_1_11176"/>
				<departure id="metro_1_11179" departureTime="19:39:00" vehicleRefId="metro_1_11179"/>
				<departure id="metro_1_11182" departureTime="19:42:00" vehicleRefId="metro_1_11182"/>
				<departure id="metro_1_11185" departureTime="19:45:00" vehicleRefId="metro_1_11185"/>
				<departure id="metro_1_11188" departureTime="19:48:00" vehicleRefId="metro_1_11188"/>
				<departure id="metro_1_11191" departureTime="19:51:00" vehicleRefId="metro_1_11191"/>
				<departure id="metro_1_11194" departureTime="19:54:00" vehicleRefId="metro_1_11194"/>
				<departure id="metro_1_11197" departureTime="19:57:00" vehicleRefId="metro_1_11197"/>
				<departure id="metro_1_11200" departureTime="20:00:00" vehicleRefId="metro_1_11200"/>
				<departure id="metro_1_11203" departureTime="20:03:00" vehicleRefId="metro_1_11203"/>
				<departure id="metro_1_11206" departureTime="20:06:00" vehicleRefId="metro_1_11206"/>
				<departure id="metro_1_11209" departureTime="20:09:00" vehicleRefId="metro_1_11209"/>
				<departure id="metro_1_11212" departureTime="20:12:00" vehicleRefId="metro_1_11212"/>
				<departure id="metro_1_11215" departureTime="20:15:00" vehicleRefId="metro_1_11215"/>
				<departure id="metro_1_11218" departureTime="20:18:00" vehicleRefId="metro_1_11218"/>
				<departure id="metro_1_11221" departureTime="20:21:00" vehicleRefId="metro_1_11221"/>
				<departure id="metro_1_11224" departureTime="20:24:00" vehicleRefId="metro_1_11224"/>
				<departure id="metro_1_11227" departureTime="20:27:00" vehicleRefId="metro_1_11227"/>
				<departure id="metro_1_11230" departureTime="20:30:00" vehicleRefId="metro_1_11230"/>
				<departure id="metro_1_11233" departureTime="20:33:00" vehicleRefId="metro_1_11233"/>
				<departure id="metro_1_11236" departureTime="20:36:00" vehicleRefId="metro_1_11236"/>
				<departure id="metro_1_11239" departureTime="20:39:00" vehicleRefId="metro_1_11239"/>
				<departure id="metro_1_11242" departureTime="20:42:00" vehicleRefId="metro_1_11242"/>
				<departure id="metro_1_11245" departureTime="20:45:00" vehicleRefId="metro_1_11245"/>
				<departure id="metro_1_11248" departureTime="20:48:00" vehicleRefId="metro_1_11248"/>
				<departure id="metro_1_11251" departureTime="20:51:00" vehicleRefId="metro_1_11251"/>
				<departure id="metro_1_11254" departureTime="20:54:00" vehicleRefId="metro_1_11254"/>
				<departure id="metro_1_11257" departureTime="20:57:00" vehicleRefId="metro_1_11257"/>
				<departure id="metro_1_11260" departureTime="21:00:00" vehicleRefId="metro_1_11260"/>
				<departure id="metro_1_11263" departureTime="21:03:00" vehicleRefId="metro_1_11263"/>
				<departure id="metro_1_11266" departureTime="21:06:00" vehicleRefId="metro_1_11266"/>
				<departure id="metro_1_11269" departureTime="21:09:00" vehicleRefId="metro_1_11269"/>
				<departure id="metro_1_11272" departureTime="21:12:00" vehicleRefId="metro_1_11272"/>
				<departure id="metro_1_11275" departureTime="21:15:00" vehicleRefId="metro_1_11275"/>
				<departure id="metro_1_11278" departureTime="21:18:00" vehicleRefId="metro_1_11278"/>
				<departure id="metro_1_11281" departureTime="21:21:00" vehicleRefId="metro_1_11281"/>
				<departure id="metro_1_11284" departureTime="21:24:00" vehicleRefId="metro_1_11284"/>
				<departure id="metro_1_11287" departureTime="21:27:00" vehicleRefId="metro_1_11287"/>
				<departure id="metro_1_11290" departureTime="21:30:00" vehicleRefId="metro_1_11290"/>
				<departure id="metro_1_11293" departureTime="21:33:00" vehicleRefId="metro_1_11293"/>
				<departure id="metro_1_11296" departureTime="21:36:00" vehicleRefId="metro_1_11296"/>
				<departure id="metro_1_11299" departureTime="21:39:00" vehicleRefId="metro_1_11299"/>
				<departure id="metro_1_11302" departureTime="21:42:00" vehicleRefId="metro_1_11302"/>
				<departure id="metro_1_11305" departureTime="21:45:00" vehicleRefId="metro_1_11305"/>
				<departure id="metro_1_11308" departureTime="21:48:00" vehicleRefId="metro_1_11308"/>
				<departure id="metro_1_11311" departureTime="21:51:00" vehicleRefId="metro_1_11311"/>
				<departure id="metro_1_11314" departureTime="21:54:00" vehicleRefId="metro_1_11314"/>
				<departure id="metro_1_11317" departureTime="21:57:00" vehicleRefId="metro_1_11317"/>
				<departure id="metro_1_11320" departureTime="22:00:00" vehicleRefId="metro_1_11320"/>
				<departure id="metro_1_11323" departureTime="22:03:00" vehicleRefId="metro_1_11323"/>
				<departure id="metro_1_11326" departureTime="22:06:00" vehicleRefId="metro_1_11326"/>
				<departure id="metro_1_11329" departureTime="22:09:00" vehicleRefId="metro_1_11329"/>
				<departure id="metro_1_11332" departureTime="22:12:00" vehicleRefId="metro_1_11332"/>
				<departure id="metro_1_11335" departureTime="22:15:00" vehicleRefId="metro_1_11335"/>
				<departure id="metro_1_11338" departureTime="22:18:00" vehicleRefId="metro_1_11338"/>
				<departure id="metro_1_11341" departureTime="22:21:00" vehicleRefId="metro_1_11341"/>
				<departure id="metro_1_11344" departureTime="22:24:00" vehicleRefId="metro_1_11344"/>
				<departure id="metro_1_11347" departureTime="22:27:00" vehicleRefId="metro_1_11347"/>